
**** 04/16/21 15:26:35 ****** PSpice Lite (October 2012) ****** ID# 10813 ****

 ** Profile: "SCHEMATIC1-bias"  [ D:\Robotics\Udyam 21\Continuum\ps2\differen-pspicefiles\schematic1\bias.sim ] 


 ****     CIRCUIT DESCRIPTION


******************************************************************************




** Creating circuit file "bias.cir" 
** WARNING: THIS AUTOMATICALLY GENERATED FILE MAY BE OVERWRITTEN BY SUBSEQUENT SIMULATIONS

*Libraries: 
* Profile Libraries :
* Local Libraries :
.LIB "../../../differen-pspicefiles/differen.lib" 
* From [PSPICE NETLIST] section of C:\Users\HP\AppData\Roaming\SPB_Data\cdssetup\OrCAD_PSpice/16.6.0/PSpice.ini file:
.lib "nomd.lib" 

*Analysis directives: 
.OP
.OPTIONS ADVCONV
.PROBE64 V(alias(*)) I(alias(*)) W(alias(*)) D(alias(*)) NOISE(alias(*)) 
.INC "..\SCHEMATIC1.net" 



**** INCLUDING SCHEMATIC1.net ****
* source DIFFEREN
E_U8         N28180 0 VALUE {LIMIT(V(0,N28083)*1E6,-15V,+15V)}
R_R1         N28083 N28180  500 TC=0,0 
C_C1         N28087 N28083  0.000001  TC=0,0 
V_V1         N28087 0  AC 0
+SIN 0 5 100 0 0 0
E_U9         N29049 0 VALUE {LIMIT(V(0,N28987)*1E6,-15V,+15V)}
V_V2         N28991 0  AC 0
+SIN 0 5 100 0 0 0
R_R2         N28991 N28987  50 TC=0,0 
C_C2         N28987 N29049  0.0001  TC=0,0 
R_R3         N30453 N30563  755000 TC=0,0 
D_D2         N35386 N30453 Dbreak 
X_U2         0 N30453 N30447 N304273 N30457 uA741
V_V9         0 N304273 500
V_V10         N30447 0 500
D_D3         N33800 N33750 Dbreak 
V_V12         0 N337743 500
V_V13         N33794 0 500
R_R4         N33816 N33800  1000000 TC=0,0 
X_U10         0 N33800 N33794 N337743 N33750 uA741
E_U11         N35386 0 VALUE {LIMIT(V(0,N35391)*1E6,-15V,+15V)}
R_R5         N33750 N35391  1000000 TC=0,0 
R_R6         N33750 N35391  1000000 TC=0,0 
R_R7         N35391 N35386  1000000 TC=0,0 
V_V15         N30457 N30563 1
D_D4         0 N38600 Dbreak 
D_D5         N38600 N38638 Dbreak 
D_D6         0 N38655 Dbreak 
D_D7         N38655 N38638 Dbreak 
V_V17         N38600 N38655  AC 0
+SIN 0 5 100 0 0 0
R_R9         0 N38638  1000 TC=0,0 
E_U12         N44481 0 VALUE {LIMIT(V(N38638,N44493)*1E6,-15V,+15V)}
R_R10         N44493 N44481  10000 TC=0,0 
R_R11         0 N44493  10 TC=0,0 

**** RESUMING bias.cir ****
.END

ERROR(ORPSIM-15141): Less than 2 connections at node N33816.
