
**** 04/16/21 15:31:52 ****** PSpice Lite (October 2012) ****** ID# 10813 ****

 ** Profile: "SCHEMATIC1-diff"  [ D:\Robotics\Udyam 21\Continuum\ps2\differen-PSpiceFiles\SCHEMATIC1\diff.sim ] 


 ****     CIRCUIT DESCRIPTION


******************************************************************************




** Creating circuit file "diff.cir" 
** WARNING: THIS AUTOMATICALLY GENERATED FILE MAY BE OVERWRITTEN BY SUBSEQUENT SIMULATIONS

*Libraries: 
* Profile Libraries :
* Local Libraries :
.LIB "../../../differen-pspicefiles/differen.lib" 
* From [PSPICE NETLIST] section of C:\Users\HP\AppData\Roaming\SPB_Data\cdssetup\OrCAD_PSpice/16.6.0/PSpice.ini file:
.lib "nomd.lib" 

*Analysis directives: 
.TRAN  0 0.05s 0 0.0001 
.OPTIONS ADVCONV
.PROBE64 V(alias(*)) I(alias(*)) W(alias(*)) D(alias(*)) NOISE(alias(*)) 
.INC "..\SCHEMATIC1.net" 



**** INCLUDING SCHEMATIC1.net ****
* source DIFFEREN
E_U8         N28180 0 VALUE {LIMIT(V(0,N28083)*1E6,-15V,+15V)}
R_R1         N28083 N28180  500 TC=0,0 
C_C1         N28087 N28083  0.000001  TC=0,0 
V_V1         N28087 0  AC 0
+SIN 0 5 100 0 0 0
E_U9         N29049 0 VALUE {LIMIT(V(0,N28987)*1E6,-15V,+15V)}
V_V2         N28991 0  AC 0
+SIN 0 5 100 0 0 0
R_R2         N28991 N28987  50 TC=0,0 
C_C2         N28987 N29049  0.0001  TC=0,0 
R_R3         N30453 N30563  755000 TC=0,0 
D_D2         N35386 N30453 Dbreak 
X_U2         0 N30453 N30447 N304273 N30457 uA741
V_V9         0 N304273 500
V_V10         N30447 0 500
D_D3         N33800 N33750 Dbreak 
V_V12         0 N337743 500
V_V13         N33794 0 500
R_R4         N33816 N33800  1000000 TC=0,0 
X_U10         0 N33800 N33794 N337743 N33750 uA741
E_U11         N35386 0 VALUE {LIMIT(V(0,N35391)*1E6,-15V,+15V)}
R_R5         N33750 N35391  1000000 TC=0,0 
R_R6         N33750 N35391  1000000 TC=0,0 
R_R7         N35391 N35386  1000000 TC=0,0 
V_V15         N30457 N30563 1
D_D4         0 N38600 Dbreak 
D_D5         N38600 N38638 Dbreak 
D_D6         0 N38655 Dbreak 
D_D7         N38655 N38638 Dbreak 
V_V17         N38600 N38655  AC 0
+SIN 0 5 100 0 0 0
R_R9         0 N38638  1000 TC=0,0 
E_U12         N44481 0 VALUE {LIMIT(V(N38638,N44493)*1E6,-15V,+15V)}
R_R10         N44493 N44481  100 TC=0,0 
R_R11         0 N44493  100 TC=0,0 
V_V18         N33816 0  AC 0
+SIN 0 5 100 0 0 0

**** RESUMING diff.cir ****
.END

**** 04/16/21 15:31:52 ****** PSpice Lite (October 2012) ****** ID# 10813 ****

 ** Profile: "SCHEMATIC1-diff"  [ D:\Robotics\Udyam 21\Continuum\ps2\differen-PSpiceFiles\SCHEMATIC1\diff.sim ] 


 ****     Diode MODEL PARAMETERS


******************************************************************************




               Dbreak          X_U2.dx         X_U10.dx        
          IS    1.000000E-06  800.000000E-18  800.000000E-18 
           N   55                                            
          RS     .1             1               1            
         CJO  100.000000E-15                                 


**** 04/16/21 15:31:52 ****** PSpice Lite (October 2012) ****** ID# 10813 ****

 ** Profile: "SCHEMATIC1-diff"  [ D:\Robotics\Udyam 21\Continuum\ps2\differen-PSpiceFiles\SCHEMATIC1\diff.sim ] 


 ****     BJT MODEL PARAMETERS


******************************************************************************




               X_U2.qx         X_U10.qx        
               NPN             NPN             
       LEVEL    1               1            
          IS  800.000000E-18  800.000000E-18 
          BF   93.75           93.75         
          NF    1               1            
          BR    1               1            
          NR    1               1            
         ISS    0               0            
          RE    0               0            
          RC    0               0            
         CJE    0               0            
         VJE     .75             .75         
         CJC    0               0            
         VJC     .75             .75         
         MJC     .33             .33         
        XCJC    1               1            
         CJS    0               0            
         VJS     .75             .75         
          KF    0               0            
          AF    1               1            
          CN    2.42            2.42         
           D     .87             .87         


**** 04/16/21 15:31:52 ****** PSpice Lite (October 2012) ****** ID# 10813 ****

 ** Profile: "SCHEMATIC1-diff"  [ D:\Robotics\Udyam 21\Continuum\ps2\differen-PSpiceFiles\SCHEMATIC1\diff.sim ] 


 ****     INITIAL TRANSIENT SOLUTION       TEMPERATURE =   27.000 DEG C


******************************************************************************



 NODE   VOLTAGE     NODE   VOLTAGE     NODE   VOLTAGE     NODE   VOLTAGE


(N28083)    0.0000 (N28087)    0.0000 (N28180)    0.0000 (N28987)    0.0000     

(N28991)    0.0000 (N29049)    0.0000 (N30447)  500.0000 (N30453) 13.35E-06     

(N30457)    1.1749 (N30563)     .1749 (N33750)     .1175 (N33794)  500.0000     

(N33800) 18.66E-06 (N33816)    0.0000 (N35386)    -.2351 (N35391) 235.1E-09     

(N38600)    0.0000 (N38638)    0.0000 (N38655)    0.0000 (N44481)    0.0000     

(N44493)    0.0000 (X_U2.6)-111.0E-06 (X_U2.7)    1.1749 (X_U2.8)    1.1749     

(X_U2.9)    0.0000 (N304273) -500.0000                   (N337743) -500.0000    

(X_U10.6)-11.11E-06                   (X_U10.7)     .1176                       

(X_U10.8)     .1176                   (X_U10.9)    0.0000                       

(X_U2.10)    -.6077                   (X_U2.11)  499.9600                       

(X_U2.12)  499.9600                   (X_U2.13)    -.5938                       

(X_U2.14)    -.5938                   (X_U2.53)  499.0000                       

(X_U2.54) -499.0000                   (X_U2.90) 231.6E-06                       

(X_U2.91)   40.0000                   (X_U2.92)  -40.0000                       

(X_U2.99)    0.0000                   (X_U10.10)    -.6077                      

(X_U10.11)  499.9600                  (X_U10.12)  499.9600                      

(X_U10.13)    -.5938                  (X_U10.14)    -.5938                      

(X_U10.53)  499.0000                  (X_U10.54) -499.0000                      

(X_U10.90) 314.4E-06                  (X_U10.91)   40.0000                      

(X_U10.92)  -40.0000                  (X_U10.99)    0.0000                  




    VOLTAGE SOURCE CURRENTS
    NAME         CURRENT

    V_V1         0.000E+00
    V_V2         0.000E+00
    V_V9        -5.508E-02
    V_V10       -5.508E-02
    V_V12       -5.508E-02
    V_V13       -5.508E-02
    V_V15        2.316E-07
    V_V17        0.000E+00
    V_V18        1.866E-11
    X_U2.vb     -1.110E-09
    X_U2.vc      4.978E-10
    X_U2.ve      5.002E-10
    X_U2.vlim    2.316E-07
    X_U2.vlp    -4.000E-11
    X_U2.vln    -4.000E-11
    X_U10.vb    -1.111E-10
    X_U10.vc     4.989E-10
    X_U10.ve     4.991E-10
    X_U10.vlim   3.144E-07
    X_U10.vlp   -4.000E-11
    X_U10.vln   -4.000E-11

    TOTAL POWER DISSIPATION   1.10E+02  WATTS

Reducing minimum delta to make the circuit converge.
Reducing minimum delta to make the circuit converge.
Reducing minimum delta to make the circuit converge.
Reducing minimum delta to make the circuit converge.
Reducing minimum delta to make the circuit converge.

ERROR(ORPSIM-15138): Convergence problem in Transient Analysis at Time =  .041.
         Time step =  709.8E-21, minimum allowable step size =  1.000E-18

  These voltages failed to converge:

    V(N30453)                 =  -267.30uV  \  -136.15uV
    V(N35391)                 =   -28.71uV  \    15.01uV

  These supply currents failed to converge:

    I(E_U9)                   =    42.37mA  \    43.03mA
    I(X_U2.egnd)              =   -1.132uA  \   -1.134uA
    I(X_U10.egnd)             =  -572.52nA  \  -574.21nA

  These devices failed to converge:
    E_U11     



  Last node voltages tried were:

 NODE   VOLTAGE     NODE   VOLTAGE     NODE   VOLTAGE     NODE   VOLTAGE


(N28083) 1.418E-06 (N28087)    2.1514 (N28180)   -1.4180 (N28987) 155.1E-09     

(N28991)    2.1514 (N29049)    -.1551 (N30447)  500.0000 (N30453)-267.3E-06     

(N30457)    1.8149 (N30563)     .8149 (N33750)    7.5000 (N33794)  500.0000     

(N33800)    2.9300 (N33816)    2.1514 (N35386)  -15.0000 (N35391)-28.71E-06     

(N38600)    1.0760 (N38638) 599.4E-06 (N38655)   -1.0754 (N44481)     .0012     

(N44493) 599.4E-06 (X_U2.6)-171.4E-06 (X_U2.7)    1.8150 (X_U2.8)    1.8150     

(X_U2.9)    0.0000 (N304273) -500.0000                   (N337743) -500.0000    

(X_U10.6)-708.4E-06                   (X_U10.7)    7.5008                       

(X_U10.8)    7.5008                   (X_U10.9)    0.0000                       

(X_U2.10)    -.6078                   (X_U2.11)  499.9600                       

(X_U2.12)  499.9600                   (X_U2.13)    -.5940                       

(X_U2.14)    -.5939                   (X_U2.53)  499.0000                       

(X_U2.54) -499.0000                   (X_U2.90)     .0011                       

(X_U2.91)   40.0000                   (X_U2.92)  -40.0000                       

(X_U2.99)    0.0000                   (X_U10.10)    2.2897                      

(X_U10.11)  499.9200                  (X_U10.12)  500.0000                      

(X_U10.13)    2.3179                  (X_U10.14)    2.2897                      

(X_U10.53)  499.0000                  (X_U10.54) -499.0000                      

(X_U10.90)     .0159                  (X_U10.91)   40.0000                      

(X_U10.92)  -40.0000                  (X_U10.99)    0.0000                  


**** Interrupt ****
